/*--------------------------------*- C++ -*----------------------------------*\
| =========                 |                                                 |
| \\      /  F ield         | OpenFOAM: The Open Source CFD Toolbox           |
|  \\    /   O peration     | Version:  plus                                  |
|   \\  /    A nd           | Web:      www.OpenFOAM.com                      |
|    \\/     M anipulation  |                                                 |
\*---------------------------------------------------------------------------*/
FoamFile
{
    version     2.0;
    format      ascii;
    class       dictionary;
    location    "system";
    object      fvSolution;
}
// * * * * * * * * * * * * * * * * * * * * * * * * * * * * * * * * * * * * * //

solvers
{
    "alpha.water.*"
    {
        nAlphaCorr      2;
        nAlphaSubCycles 3;
        cAlpha          1;
		
		MULESCorr       yes;
        nLimiterIter    10;

        solver          smoothSolver;
        smoother        symGaussSeidel;
        tolerance       1e-8;
        relTol          0;
    }

    "pcorr.*"
    {
        solver          PCG;
        preconditioner  DIC;
        tolerance       1e-6;
        relTol          0;
    }

    p
    {
        solver          GAMG;
        smoother        GaussSeidel;
        tolerance       1e-6;
        relTol          0.05;
    }

    pFinal
    {
        $p;
        relTol          0;
    }
	
	
	"(voidfraction|Us|Ksl|dSmoothing|UsNext|f)"
    {
        solver          PCG;
        preconditioner  DIC;
        tolerance       1e-6;
        relTol          0;
    }
	
	"(sSmoothField|vSmoothField)"
	{
        /*solver        PCG;
        preconditioner  DIC;
        tolerance       1e-5;
        relTol          0;*/
        solver          GAMG;
        tolerance       1e-05;
        relTol          0;
        smoother        GaussSeidel;
    }

    "(U|k|epsilon|omega|R|nuTilda)"
    {
        solver          PBiCG; 
        preconditioner  DILU;
        tolerance       1e-06;
        relTol          0.1;
		/*solver          smoothSolver;
        smoother        symGaussSeidel;
        tolerance       1e-06;
        relTol          0.1;*/
    }

    "(U|k|epsilon|omega|R|nuTilda)Final"
    {
        $U;
        relTol          0;
    }
}

PIMPLE
{
    momentumPredictor   no;
    nCorrectors         3;
    nNonOrthogonalCorrectors 0;
    pRefCell            0;
    pRefValue           0;
}

PISO
{
    momentumPredictor   no;
    nCorrectors         2;
    nNonOrthogonalCorrectors 0;
    pRefCell            0;
    pRefValue           0;
}

// ************************************************************************* //
