/*--------------------------------*- C++ -*----------------------------------*\
| =========                 |                                                 |
| \\      /  F ield         | OpenFOAM: The Open Source CFD Toolbox           |
|  \\    /   O peration     | Version:  1.6                                   |
|   \\  /    A nd           | Web:      www.OpenFOAM.org                      |
|    \\/     M anipulation  |                                                 |
\*---------------------------------------------------------------------------*/
FoamFile
{
    version     2.0;
    format      ascii;
    class       dictionary;
    location    "system";
    object      controlDict;
}
// * * * * * * * * * * * * * * * * * * * * * * * * * * * * * * * * * * * * * //

application     cfdemSolverDiffusion;

startFrom       startTime;

startTime       0;

stopAt          endTime;

endTime         5;

deltaT          0.0001;

writeControl    adjustableRunTime;

writeInterval   0.5;

purgeWrite      0;

writeFormat     ascii;

writePrecision  6;

writeCompression uncompressed;

timeFormat      general;

timePrecision   6;

runTimeModifiable yes;

adjustTimeStep  no;

maxCo 0.1;

libs ( "libmyFiniteVolume.so" );

functions
{
    #includeFunc  pressureDifferencePatch
	
    volFlow_inlet
    {
        type            surfaceFieldValue;
        functionObjectLibs ("libfieldFunctionObjects.so");
        writeControl   timeStep;
        writeInterval  1;
        log             true;
        writeFields     false;
        valueOutput     false;
        regionType      patch;
        name            inlet;
        operation       sum;
        fields
        (
            phi
        );
    }

    volFlow_outlet
    {
        type            surfaceFieldValue;
        functionObjectLibs ("libfieldFunctionObjects.so");
        writeControl   timeStep;
        writeInterval  1;
        log             true;
        writeFields     false;
        valueOutput     false;
        regionType      patch;
        name            outlet;
        operation       sum;
        fields
        (
            phi
        );
    }

    volFlow_wall
    {
        type            surfaceFieldValue;
        functionObjectLibs ("libfieldFunctionObjects.so");
        writeControl   timeStep;
        writeInterval      1;
        log             true;
        writeFields     false;
        valueOutput     false;
        regionType      patch;
        name            walls;
        operation       sum;
        fields
        (
            phi
        );
    }
}
// ************************************************************************* //
