/*---------------------------------------------------------------------------*\
| =========                 |                                                 |
| \\      /  F ield         | OpenFOAM: The Open Source CFD Toolbox           |
|  \\    /   O peration     | Version:  1.4                                   |
|   \\  /    A nd           | Web:      http://www.openfoam.org               |
|    \\/     M anipulation  |                                                 |
\*---------------------------------------------------------------------------*/


FoamFile
{
    version         2.0;
    format          ascii;

    root            "";
    case            "";
    instance        "";
    local           "";

    class           dictionary;
    object          couplingProperties;
}

// * * * * * * * * * * * * * * * * * * * * * * * * * * * * * * * * * * * * * //

//===========================================================================//
// sub-models & settings

modelType "A"; // A or B

couplingInterval 10;

voidFractionModel diffCentre;//diffCentre;//centre;//

locateModel engine;//engineIB;//

meshMotionModel noMeshMotion;

IOModel off;

probeModel off;

dataExchangeModel twoWayMPI;

averagingModel dense;//dilute;//

clockModel off;

smoothingModel constDiffSmoothing;

backwardInterpolation;

forceModels
(
    DiFeliceDrag
    gradPForce
    viscForce
	virtualMassForce
);

momCoupleModels
(
    explicitCouple
);

//turbulenceModelType "RASProperties";//"LESProperties";//OFversion24x
turbulenceModelType turbulenceProperties;//"LESProperties";//OFversion30x

//===========================================================================//
// sub-model properties
constDiffSmoothingProps
{
    lowerLimit 0;
    upperLimit 0.64;
	smoothCycles 3;
    smoothingLength 0.002;
	variableDiffusionCoefficient;
}

explicitCoupleProps
{
    fLimit (1e10 1e10 1e10);
}

ArchimedesProps
{
    gravityFieldName "g";
}

noDragProps
{
    noDEMForce true;
    keepCFDForce false;
};

gradPForceProps
{
    pFieldName "p";
    voidfractionFieldName "voidfraction";
    velocityFieldName "U";
	backwardInterpolation;
}

viscForceProps
{
    velocityFieldName "U";
    interpolation false;
	backwardInterpolation;
}

DiFeliceDragProps
{
    velFieldName "U";
    voidfractionFieldName "voidfraction";
    granVelFieldName "Us";
    treatForceExplicit true;
	backwardInterpolation;
}

virtualMassForceProps
{
    velFieldName "U";
    phiFieldName "phi";
	interpolation false;
	treatForceExplicit true;
	backwardInterpolation;
}

MeiLiftProps
{
    velFieldName "U";
	backwardInterpolation;
}

diffCentreProps
{
    maxCellsPerParticle 1000;
	weight 1.;
	porosity 1;
}

"(engineProps|turboEngineProps|turboEngineM2MProps)"
{
    treeSearch true;
}

"(twoWayMPIProps|M2MProps)"
{
    liggghtsPath "../DEM/in.liggghts_run";
}
// ************************************************************************* //
